REMARK  1 active torsions:
REMARK  status: ('A' for Active; 'I' for Inactive)
REMARK    1  A    between atoms: C04_4  and  S07_7 
ROOT
ATOM      1  C01 FB2 d   1      34.869  -2.135  10.878  0.00  0.00     0.000 A 
ATOM      2  C02 FB2 d   1      34.300  -3.081  11.728  0.00  0.00     0.001 A 
ATOM      3  C03 FB2 d   1      33.350  -2.690  12.690  0.00  0.00     0.013 A 
ATOM      4  C04 FB2 d   1      33.001  -1.319  12.821  0.00  0.00     0.107 A 
ATOM      5  C05 FB2 d   1      33.563  -0.367  11.965  0.00  0.00     0.013 A 
ATOM      6  C06 FB2 d   1      34.479  -0.789  10.982  0.00  0.00     0.001 A 
ENDROOT
BRANCH   4   7
ATOM      7  S07 FB2 d   1      31.732  -0.853  14.103  0.00  0.00     0.302 S 
ATOM      8  O08 FB2 d   1      32.453  -0.646  15.491  0.00  0.00    -0.197 OA
ATOM      9  O09 FB2 d   1      31.026   0.395  13.675  0.00  0.00    -0.197 OA
ATOM     10  NP0 FB2 d   1      30.847  -2.146  14.095  0.00  0.00    -0.043 N 
ENDBRANCH   4   7
TORSDOF 1
