REMARK  2 active torsions:
REMARK  status: ('A' for Active; 'I' for Inactive)
REMARK    1  A    between atoms: C3_3  and  O3_20 
REMARK    2  A    between atoms: C5_5  and  O4_21 
ROOT
ATOM      1  C1  M1S d   1      55.213  75.943  -5.716  0.00  0.00     0.296 C 
ATOM      2  C2  M1S d   1      55.185  76.841  -4.514  0.00  0.00     0.081 A 
ATOM      3  C3  M1S d   1      54.308  77.940  -4.525  0.00  0.00     0.085 A 
ATOM      4  C4  M1S d   1      54.250  78.839  -3.469  0.00  0.00     0.076 A 
ATOM      5  C5  M1S d   1      55.111  78.613  -2.392  0.00  0.00     0.090 A 
ATOM      6  C6  M1S d   1      55.947  77.531  -2.405  0.00  0.00     0.075 A 
ATOM      7  C7  M1S d   1      56.039  76.613  -3.439  0.00  0.00    -0.008 A 
ATOM      8  C8  M1S d   1      57.012  75.429  -3.349  0.00  0.00     0.119 C 
ATOM      9  C9  M1S d   1      58.368  75.665  -3.947  0.00  0.00     0.131 C 
ATOM     10  C10 M1S d   1      58.898  77.047  -4.204  0.00  0.00     0.078 C 
ATOM     11  C11 M1S d   1      60.308  76.984  -4.803  0.00  0.00     0.007 C 
ATOM     12  C12 M1S d   1      60.810  78.362  -5.204  0.00  0.00     0.001 C 
ATOM     13  C13 M1S d   1      59.957  79.008  -6.295  0.00  0.00     0.004 C 
ATOM     14  C14 M1S d   1      60.057  78.225  -7.603  0.00  0.00     0.027 C 
ATOM     15  C15 M1S d   1      58.723  77.590  -7.927  0.00  0.00    -0.031 C 
ATOM     16  C16 M1S d   1      58.618  76.267  -8.028  0.00  0.00    -0.029 C 
ATOM     17  C17 M1S d   1      57.291  75.627  -8.367  0.00  0.00     0.053 C 
ATOM     18  C18 M1S d   1      56.690  74.767  -7.260  0.00  0.00     0.183 C 
ATOM     19  O2  M1S d   1      54.250  75.611  -6.373  0.00  0.00    -0.259 OA
ATOM     20 CL1  M1S d   1      56.942  77.272  -0.964  0.00  0.00    -0.081 Cl
ATOM     21  O5  M1S d   1      59.037  74.652  -4.167  0.00  0.00    -0.298 OA
ATOM     22  O1  M1S d   1      56.532  75.597  -6.079  0.00  0.00    -0.317 OA
ENDROOT
BRANCH   3  23
ATOM     23  O3  M1S d   1      53.444  78.132  -5.589  0.00  0.00    -0.360 OA
ATOM     24  H20 M1S d   1      53.586  77.453  -6.238  0.00  0.00     0.217 HD
ENDBRANCH   3  23
BRANCH   5  25
ATOM     25  O4  M1S d   1      55.135  79.494  -1.339  0.00  0.00    -0.359 OA
ATOM     26  H21 M1S d   1      54.497  80.182  -1.488  0.00  0.00     0.217 HD
ENDBRANCH   5  25
TORSDOF 2
